make
cmake home/dmata/DualSPHysics/bin
cmake home/dmata/DualSPHysics/src
cmake /home/dmata/DualSPHysics/bin
cmake //home/dmata/DualSPHysics/src/
CMake GUI
cmake
cmake /home/dmata/DualSPHysics/bin/linux
cmake /home/dmata/DualSPHysics/src/source/build
make
Makefile_cpu
USE_GCC5=YES
docker images
docker pull nvidia/cuda
docker info
git clone https://github.com/DualSPHysics/DualSPHysics.git
docker run nvidia/cuda
docker ps
docker info
cd DualSPHysics/src/source/
make -f Makefile_cpu
/home/dmata/DualSPHysics/bin/linuxmake -f Makefile_cpu/home/dmata/DualSPHysics/bin/linuxmake -f Makefile_cpu
/home/dmata/DualSPHysics/bin/linuxmake -f Makefile_cpu
-f Makefile_cpu
Makefile_cpu
clear
ls
cd DualSPHysics
ls
cd examples
l
cd main
ls
cd 01_DamBreak
ls
sh xCaseDambreakVal2D_linux64_GPU.sh
xCaseDambreakVal2D_linux64_CPU.sh
sh xCaseDambreakVal2D_linux64_CPU.sh
mkdir ~/teste_DualSPHysics
cd ~/teste_DualSPHysics
git clone https://github.com/DualSPHysics/DualSPHysics.git
cd DualSPHysics/src/source/
export DIRTOOLKIT=/usr/local/cuda-9.0
export PATH=/usr/local/cuda-9.0/bin:$PATH
nano Makefile
make clean
make
nano Makefile
make clean
MAKE CLEAN
make clean
nano Makefile
nano Makefile_CPU
nano Makefile_cpu
make clena
make clean
mkdir ~/teste_DualSPHysics
cd ~/teste_DualSPHysics
git clone https://github.com/DualSPHysics/DualSPHysics.git
cd DualSPHysics/src/source/
export DIRTOOLKIT=/usr/local/cuda-9.0
export PATH=/usr/local/cuda-9.0/bin:$PATH
nano Makefile
make clean
make
cd ~/teste_DualSPHysics/DualSPHysics
sh chpermissions.sh 
cd ~/teste_DualSPHysics/DualSPHysics/examples
mkdir modelo1
cd ~/teste_DualSPHysics/DualSPHysics/examples/modelo1/modelo1/modelo1
sh wIga2020_linux64_CPU.sh
ls
sh wIga2020_linux64_CPU.sh
sh wIga2020_linux64_GPU.sh
cp -a ~/DualSPHysics_1/examples/modelo1 modelo1/
cd ~/teste_DualSPHysics/DualSPHysics/examples/modelo1/modelo1/modelo1
sh wIga2020_linux64_CPU.sh
clear
/teste_DualSPHysics/DualSPHysics/examples/modelo1/modelo1/modelo1$
ls
sh wIga2020_linux64_CPU.sh
cd ~/teste_DualSPHysics/DualSPHysics/examples/modelo1/modelo1/modelo1
ls
sh wIga2020_linux64_GPU.sh
cd ~/teste_DualSPHysics/DualSPHysics/examples/modelo1/modelo1/modelo1
ls
sh wIga2020_linux64_GPU.sh
Part                                                                                        VTKOut_linux64Time of operation: 62.885 sec. (80 threads)
wIga2020_linux64_GPU.sh: 66: wIga2020_linux64_GPU.sh: ../../../../bin/linux/Part                                                                                        VTKOut_linux64: not found
Execution aborted.
wIga2020_linux64_GPU.sh: 5: read: Illegal option -n
cd ~/teste_DualSPHysics/DualSPHysics/examples/modelo1/modelo1/modelo1
ls
nano wIga2020_linux64_CPU.sh
nano wIga2020_linux64_GPU.sh
nano x_Def.xml
sh wIga2020_linux64_CPU.sh shwIga2020_linux64_GPU.sh
cd ~/teste_DualSPHysics/DualSPHysics/examples/modelo1/modelo1/modelo1
ls
nano wIga2020_linux64_GPU.sh
nano x_Def.xml
shwIga2020_linux64_GPU.sh
sh shwIga2020_linux64_GPU.sh
sh wIga2020_linux64_CPU.sh sh wIga2020_linux64_GPU.sh
cd ~/teste_DualSPHysics/DualSPHysics/examples/modelo1/modelo1/modelo1
ls
sh wIga2020_linux64_CPU.sh && sh wIga2020_linux64_GPU.sh
cd ~/teste_DualSPHysics/DualSPHysics/examples/modelo1/modelo1/modelo1
ls
sh wIga2020_linux64_GPU.sh
ls
sh wIga2020_linux64_GPU.sh
cd ~/teste_DualSPHysics/DualSPHysics/examples/modelo1/modelo1/modelo1
ls
sh wIga2020_linux64_GPU.sh
ls
sh wIga2020_linux64_GPU.sh
ls
sh wIga2020_linux64_GPU.sh
ls
nano x_Def.xml
sh wIga2020_linux64_GPU.sh
ls
nanox_Def.xml
nano x_Def.xml
ls
sh wIga2020_linux64_GPU.sh
ls
nano x_Def.xml
cd ~/teste_DualSPHysics/DualSPHysics/examples/modelo1/modelo1/modelo1
ls
sh wIga2020_linux64_GPU.sh
cd ~/teste_DualSPHysics/DualSPHysics/examples/modelo1/modelo1/modelo1
ls
nano x_Def.xml
sh wIga2020_linux64_GPU.sh
cd ~/teste_DualSPHysics/DualSPHysics/examples/modelo1/modelo1/modelo1
ls
nano x_Def.xml
sh wIga2020_linux64_GPU.sh
cd ~/teste_DualSPHysics/DualSPHysics/examples/modelo1/modelo1/modelo1
ls
sh wIga2020_linux64_GPU.sh
cd ~/teste_DualSPHysics/DualSPHysics/examples/modelo1/modelo1/modelo1
ls
sh wIga2020_linux64_GPU.sh
ls
sh wIga2020_linux64_GPU.sh
cd ~/teste_DualSPHysics/DualSPHysics/examples/modelo1/modelo1/modelo1
ls
sh wIga2020_linux64_GPU.sh
ls
nano x_Def.xml
sh wIga2020_linux64_GPU.sh
ls
nano x_Def.xml
sh wIga2020_linux64_GPU.sh
ls
nano x_Def.xml
sh wIga2020_linux64_GPU.sh
ls
nano x_Def.xml
ls
sh wIga2020_linux64_GPU.sh
ls
sh wIga2020_linux64_GPU.sh
ls
sh wIga2020_linux64_GPU.sh
ls
nano x_Def.xml
ls
sh wIga2020_linux64_GPU.sh
ls
sh wIga2020_linux64_GPU.sh
ls
sh wIga2020_linux64_GPU.sh
ls
sh wIga2020_linux64_GPU.sh
ls
sh wIga2020_linux64_GPU.sh
ls
sh wIga2020_linux64_GPU.sh
ls
sh wIga2020_linux64_GPU.sh
ls
sh wIga2020_linux64_GPU.sh
ls
sh wIga2020_linux64_GPU.sh
ls
sh wIga2020_linux64_GPU.sh
ls
sh wIga2020_linux64_GPU.sh
ls
sh wIga2020_linux64_GPU.sh
ls
sh wIga2020_linux64_GPU.sh
ls
sh wIga2020_linux64_GPU.sh
ls
sh wIga2020_linux64_GPU.sh
ls
sh wIga2020_linux64_GPU.sh
ls
cd teste_DualSPHysics
ls
cd DualSPHysics
ls
cd examples
ls
cd modelo1
ls
cd modelo1
ls
cd modelo1
ls
lsa
ls
sh wIga2020_linux64_GPU.sh
ls
sh wIga2020_linux64_GPU.sh
ls
sh wIga2020_linux64_GPU.sh
ls
sh wIga2020_linux64_GPU.sh
ls
sh wIga2020_linux64_GPU.sh
ls
sh wIga2020_linux64_GPU.sh
cd /teste_DualSPHysics/DualSPHysics/examples/modelo1/modelo1/modelo1
cd teste_DualSPHysics/DualSPHysics/examples/modelo1/modelo1/modelo1
ls
sh wIga2020_linux64_GPU.sh
ls
sh wIga2020_linux64_GPU.sh
ls
sh wIga2020_linux64_GPU.sh
ls 
sh wIga2020_linux64_GPU.sh
ls
sh wIga2020_linux64_GPU.sh
ls
sh wIga2020_linux64_GPU.sh
ls
sh wIga2020_linux64_GPU.sh
ls
sh wIga2020_linux64_GPU.sh
ls
sh wIga2020_linux64_GPU.sh
ls
sh wIga2020_linux64_GPU.sh
ls
sh wIga2020_linux64_GPU.sh
cd teste_DualSPHysics/DualSPHysics/examples/modelo1/modelo1/modelo1
ls
sh wIga2020_linux64_GPU.sh
ls
sh wIga2020_linux64_GPU.sh
n2X7$aoTn3
cd teste_DualSPHysics/DualSPHysics/examples/modelo1/modelo1/modelo1
ls
sh wIga2020_linux64_GPU.sh
ls
sh wIga2020_linux64_GPU.sh
ls
sh wIga2020_linux64_GPU.sh
ls
sh wIga2020_linux64_GPU.sh
ls
sh wIga2020_linux64_GPU.sh
ls
sh wIga2020_linux64_GPU.sh
ls
sh wIga2020_linux64_GPU.sh
ls
sh wIga2020_linux64_GPU.sh
ls
sh wIga2020_linux64_GPU.sh
ls
sh wIga2020_linux64_GPU.sh
ls
sh wIga2020_linux64_GPU.sh
ls
sh wIga2020_linux64_GPU.sh
ls
sh wIga2020_linux64_GPU.sh
ls
sh wIga2020_linux64_GPU.sh
ls
sh wIga2020_linux64_GPU.sh
ls
sh wIga2020_linux64_GPU.sh
ls
sh wIga2020_linux64_GPU.sh
ls
sh wIga2020_linux64_GPU.sh
ls
sh wIga2020_linux64_GPU.sh
ls
sh wIga2020_linux64_GPU.sh
ls
sh wIga2020_linux64_GPU.sh
cd teste_DualSPHysics/DualSPHysics/examples/modelo1/modelo1/modelo1
ls
sh wIga2020_linux64_GPU.sh
cd teste_DualSPHysics/DualSPHysics/examples/modelo1/modelo1/modelo1
ls
sh wIga2020_linux64_GPU.sh
ls
sh wIga2020_linux64_GPU.sh
ls
sh wIga2020_linux64_GPU.sh
ls
sh wIga2020_linux64_GPU.sh
ls
sh wIga2020_linux64_GPU.sh
ls
sh wIga2020_linux64_GPU.sh
cd teste_DualSPHysics/DualSPHysics/examples/modelo1/modelo1/modelo1
ls
sh wIga2020_linux64_GPU.sh
cd teste_DualSPHysics/DualSPHysics/examples/modelo1/modelo1/modelo1
ls
sh wIga2020_linux64_GPU.sh
cd teste_DualSPHysics/DualSPHysics/examples/modelo1/modelo1/modelo1
ls
sh wIga2020_linux64_GPU.sh
ls
sh wIga2020_linux64_GPU.sh
ls
sh wIga2020_linux64_GPU.sh
ls
sh wIga2020_linux64_GPU.sh
ls
sh wIga2020_linux64_GPU.sh
ls
sh wIga2020_linux64_GPU.sh
ls
sh wIga2020_linux64_GPU.sh
ls
sh wIga2020_linux64_GPU.sh
ls
sh wIga2020_linux64_GPU.sh
ls
sh wIga2020_linux64_GPU.sh
ls
sh wIga2020_linux64_GPU.sh
ls
sh wIga2020_linux64_GPU.sh
ls
sh wIga2020_linux64_GPU.sh
ls
sh wIga2020_linux64_GPU.sh
ls
sh wIga2020_linux64_GPU.sh
ls
sh wIga2020_linux64_GPU.sh
ls
sh wIga2020_linux64_GPU.sh
ls
sh wIga2020_linux64_GPU.sh
ls
sh wIga2020_linux64_GPU.sh
ls
sh wIga2020_linux64_GPU.sh
ls
sh wIga2020_linux64_GPU.sh
ls
sh wIga2020_linux64_GPU.sh
ls
sh wIga2020_linux64_GPU.sh
ls
sh wIga2020_linux64_GPU.sh
ls
sh wIga2020_linux64_GPU.sh
ls
cd teste_DualSPHysics/DualSPHysics/examples/modelo1/modelo1/modelo1
ls
sh wIga2020_linux64_GPU.sh
ls
sh wIga2020_linux64_GPU.sh
ls
sh wIga2020_linux64_GPU.sh
ls
cd teste_DualSPHysics/DualSPHysics/examples/modelo1/modelo1/modelo1
ls
sh wIga2020_linux64_GPU.sh
ls
sh wIga2020_linux64_GPU.sh
ls
sh wIga2020_linux64_GPU.sh
ls
sh wIga2020_linux64_GPU.sh
ls
sh wIga2020_linux64_GPU.sh
cd teste_DualSPHysics/DualSPHysics/examples/modelo1/modelo1/modelo1
ls
sh wIga2020_linux64_GPU.sh
cd teste_DualSPHysics/DualSPHysics/examples/modelo1/modelo1/modelo1
ls
sh wIga2020_linux64_GPU.sh
ls
cd teste_DualSPHysics/DualSPHysics/examples/modelo1/modelo1/modelo1
ls
sh wIga2020_linux64_GPU.sh
ls
sh wIga2020_linux64_GPU.sh
ls
sh wIga2020_linux64_GPU.sh
ls
sh wIga2020_linux64_GPU.sh
ls
sh wIga2020_linux64_GPU.sh
ls
sh wIga2020_linux64_GPU.sh
cd teste_DualSPHysics/DualSPHysics/examples/modelo1/modelo1/modelo1
ls
sh wIga2020_linux64_GPU.sh
ls
sh wIga2020_linux64_GPU.sh
ls
sh wIga2020_linux64_GPU.sh
ls
sh wIga2020_linux64_GPU.sh
ls
sh wIga2020_linux64_GPU.sh
cd teste_DualSPHysics/DualSPHysics/examples/modelo1/modelo1/modelo1
ls
sh wIga2020_linux64_GPU.sh
ls
sh wIga2020_linux64_GPU.sh
ls
sh wIga2020_linux64_GPU.sh
cd teste_DualSPHysics/DualSPHysics/examples/modelo1/modelo1/modelo1
ls
sh wIga2020_linux64_GPU.sh
ls
sh wIga2020_linux64_GPU.sh
ls
sh wIga2020_linux64_GPU.sh
ls
sh wIga2020_linux64_GPU.sh
ls
sh wIga2020_linux64_GPU.sh
ls
sh wIga2020_linux64_GPU.sh
ls
sh wIga2020_linux64_GPU.sh
ls
sh wIga2020_linux64_GPU.sh
ls
sh wIga2020_linux64_GPU.sh
cd teste_DualSPHysics/DualSPHysics/examples/modelo1/modelo1/modelo1
ls
sh wIga2020_linux64_GPU.sh
cd teste_DualSPHysics/DualSPHysics/examples/modelo1/modelo1/modelo1
ls
sh wIga2020_linux64_GPU.sh
ls
sh wIga2020_linux64_GPU.sh
ls
sh wIga2020_linux64_GPU.sh
ls
sh wIga2020_linux64_GPU.sh
ls
sh wIga2020_linux64_GPU.sh
ls
sh wIga2020_linux64_GPU.sh
ls
sh wIga2020_linux64_GPU.sh
cd teste_DualSPHysics/DualSPHysics/examples/modelo1/modelo1/modelo1
ls
sh wIga2020_linux64_GPU.sh
ls
sh wIga2020_linux64_GPU.sh
ls
sh wIga2020_linux64_GPU.sh
ls
sh wIga2020_linux64_GPU.sh
sh
cd teste_DualSPHysics/DualSPHysics/examples/modelo1/modelo1/modelo1
ls
sh wIga2020_linux64_GPU.sh
ls
sh wIga2020_linux64_GPU.sh
ls
sh wIga2020_linux64_GPU.sh
ls
sh wIga2020_linux64_GPU.sh
ls
sh wIga2020_linux64_GPU.sh
ls
sh wIga2020_linux64_GPU.sh
ls
sh wIga2020_linux64_GPU.sh
cd teste_DualSPHysics/DualSPHysics/examples/modelo1/modelo1/modelo1
ls
sh wIga2020_linux64_GPU.sh
cd teste_DualSPHysics/DualSPHysics/examples/modelo1/modelo1/modelo1
ls
sh wIga2020_linux64_GPU.sh
cd teste_DualSPHysics/DualSPHysics/examples/modelo1/modelo1/modelo1
ls
sh wIga2020_linux64_GPU.sh
ls
sh wIga2020_linux64_GPU.sh
ls
sh wIga2020_linux64_GPU.sh
cd teste_DualSPHysics/DualSPHysics/examples/modelo1/modelo1/modelo1
ls
sh wIga2020_linux64_GPU.sh
cd teste_DualSPHysics/DualSPHysics/examples/modelo1/modelo1/modelo1
ls
sh wIga2020_linux64_GPU.sh
cd teste_DualSPHysics/DualSPHysics/examples/modelo1/modelo1/modelo1
ls
sh wIga2020_linux64_GPU.sh
cd teste_DualSPHysics/DualSPHysics/examples/modelo1/modelo1/modelo1
ls
sh wIga2020_linux64_GPU.sh
ls
sh wIga2020_linux64_GPU.sh
ls
sh wIga2020_linux64_GPU.sh
LS
ls
sh wIga2020_linux64_GPU.sh
cd teste_DualSPHysics/DualSPHysics/examples/modelo1/modelo1/modelo1
ls
sh wIga2020_linux64_GPU.sh
cd teste_DualSPHysics/DualSPHysics/examples/modelo1/modelo1/modelo1
ls
sh wIga2020_linux64_GPU.sh
ls
sh wIga2020_linux64_GPU.sh
ls
sh wIga2020_linux64_GPU.sh
ls
sh wIga2020_linux64_GPU.sh
cd teste_DualSPHysics/DualSPHysics/examples/modelo1/modelo1/modelo1
ls
sh wIga2020_linux64_GPU.sh
[Simulation finished  11-12-2020 19:05:42]
Particles of simulation (initial): 738830
Particles of simulation (total)..: 780158
DTs adjusted to DtMin............: 182493
Excluded particles...............: 602081
Excluded particles due to RhopOut: 19812
Total Runtime....................: 3633.024902 sec.
Simulation Runtime...............: 3632.535400 sec.
Runtime per physical second......: 90.813370 sec.
Steps per second.................: 32.284615
Steps of simulation..............: 117275
PART files.......................: 201
Maximum number of particles......: 776175
Maximum number of cells..........: 23562
CPU Memory.......................: 81503730 (77.73 MB)
GPU Memory.......................: 168767930 (160.95 MB)
[GPU Timers]
VA-Init..........................: 0.489274 sec.
NL-Limits........................: 169.822098 sec.
NL-PreSort.......................: 48.446693 sec.
NL-RadixSort.....................: 352.989868 sec.
NL-CellBegin.....................: 11.699425 sec.
NL-SortData......................: 82.903923 sec.
NL-OutCheck......................: 12.788803 sec.
CF-PreForces.....................: 87.176552 sec.
CF-Forces........................: 1881.701050 sec.
SU-Shifting......................: 55.843887 sec.
SU-ComputeStep...................: 24.841143 sec.
SU-Floating......................: 0.000000 sec.
SU-Motion........................: 0.000000 sec.
SU-Periodic......................: 223.584961 sec.
SU-ResizeNp......................: 0.000000 sec.
SU-DownData......................: 2.485468 sec.
SU-SavePart......................: 1.937881 sec.
SU-Chrono........................: 0.000000 sec.
SU-BoundCorr.....................: 0.256761 sec.
SU-InOut.........................: 221.115616 sec.
[Output files]
LS
ls
sh wIga2020_linux64_GPU.sh
ls
LS
ls
sh wIga2020_linux64_GPU.sh
cd teste_DualSPHysics/DualSPHysics/examples/modelo1/modelo1/modelo1
ls
sh wIga2020_linux64_GPU.sh
ls
sh wIga2020_linux64_GPU.sh
cd teste_DualSPHysics/DualSPHysics/examples/modelo1/modelo1/modelo1
ls
sh wIga2020_linux64_GPU.sh
clear
ls
sh wIga2020_linux64_GPU.sh
ls
sh wIga2020_linux64_GPU.sh
ls
sh wIga2020_linux64_GPU.sh
ls
sh wIga2020_linux64_GPU.sh
cd teste_DualSPHysics/DualSPHysics/examples/modelo1/modelo1/modelo1
la
sh wIga2020_linux64_GPU.sh
ls
sh wIga2020_linux64_GPU.sh
cd teste_DualSPHysics/DualSPHysics/examples/modelo1/modelo1/modelo1
ls
sh wIga2020_linux64_GPU.sh
cd teste_DualSPHysics/DualSPHysics/examples/modelo1/modelo1/modelo1
ls
sh wIga2020_linux64_GPU.sh
cd teste_DualSPHysics/DualSPHysics/examples/modelo1/modelo1/modelo1
ls
sh wIga2020_linux64_GPU.sh
ls
sh wIga2020_linux64_GPU.sh
ls
sh wIga2020_linux64_GPU.sh
ls
sh wIga2020_linux64_GPU.sh
ls
sh wIga2020_linux64_GPU.sh
ls
sh wIga2020_linux64_GPU.sh
cd teste_DualSPHysics/DualSPHysics/examples/modelo1/modelo1/modelo1
ls
shwIga2020_linux64_GPU.sh
sh wIga2020_linux64_GPU.sh
cd teste_DualSPHysics/DualSPHysics/examples/modelo1/modelo1/modelo1
cd
ls
cd teste_DualSPHysics
ls
cd DualSPHysics
ls
cd teste_DualSPHysics/DualSPHysics/examples/modelo1/modelo1/modelo1
ls
sh wIga2020_linux64_GPU.sh
cd teste_DualSPHysics/DualSPHysics/examples/modelo1/modelo1/modelo1
ls
sh wIga2020_linux64_GPU.sh
ls
sh wIga2020_linux64_GPU.sh
ls
sh wIga2020_linux64_GPU.sh
ls
cd teste_DualSPHysics/DualSPHysics/examples/modelo1/modelo1/modelo1
ls
sh wIga2020_linux64_GPU.sh
ls
sh wIga2020_linux64_GPU.sh
ls
sh wIga2020_linux64_CPU.sh
cd teste_DualSPHysics/DualSPHysics/examples/modelo1/modelo1/modelo1
ls
sh wIga2020_linux64_GPU.sh
ls
cat x_Def.xml
ls
sh wIga2020_linux64_GPU.sh
cd teste_DualSPHysics/DualSPHysics/examples/modelo1/modelo1/modelo1
ls
sh wIga2020_linux64_GPU.sh
cd teste_DualSPHysics/DualSPHysics/examples/modelo1/modelo1/modelo1
ls
sh wIga2020_linux64_GPU.sh
ls
sh wIga2020_linux64_GPU.sh
ls
sh wIga2020_linux64_GPU.sh
ls
sh wIga2020_linux64_GPU.sh
ls
sh wIga2020_linux64_GPU.sh
ls
sh wIga2020_linux64_GPU.sh
ls
sh wIga2020_linux64_GPU.sh
ls
sh wIga2020_linux64_GPU.sh
ls
sh wIga2020_linux64_GPU.sh
ls
sh wIga2020_linux64_GPU.sh
ls
sh wIga2020_linux64_GPU.sh
LS
ls
sh wIga2020_linux64_GPU.sh
cd teste_DualSPHysics/DualSPHysics/examples/modelo1/modelo1/modelo1
ls
sh wIga2020_linux64_GPU.sh
ls
sh wIga2020_linux64_GPU.sh
nvidia-smi
5
49753
docker run
docker run NVIDIA_VISIBLE_DEVICES
docker run nvidia_visible_devices
docker run ARG
docker run arg
docker login
nvidia_visible_devices
docker run
OPTIONS
options
ls
docker run nvidia
docker run images
docker run image
nvidia-smi
docker run nvidia_visible_devices
docker run image
runc
NVIDIA_VISIBLE_DEVICES
containerd
nvidia-smi
docker run images
docker run image
run 6
run 7
NVIDIA_VISIBLE_DEVICES
docker run NVIDIA_VISIBLE_DEVICES
docker run argument
docker run arg
docker run ARG
docker pull
docker run --name my_all_gpu_container --gpus all -t nvidia/cuda
docker run --name my_first_gpu_container --gpus '"device=0"' nvidia/cuda
nvidia-docker run --rm nvidia/cuda nvidia-smi
docker run --runtime=nvidia --rm nvidia/cuda nvidia-smi
docker run --runtime=nvidia
docker run
docker run [NVIDIA_VISIBLE_DEVICES]
docker run [nvidia_visible_devices]
$ sudo docker run -it --runtime=nvidia --shm-size=1g -e NVIDIA_VISIBLE_DEVICES=0,1 --rm nvcr.io/nvidia/pytorch:18.05-py3
ls
docker
docker search
docker hub
docker run --runtime=nvidia ls
clear
$ docker run -it --rm --gpus all ubuntu nvidia-smi
cd $(mktemp -d) && mkdir rootfs
ld
ls
cd rootfs
ls
clear
nvidia-container-cli
nvidia-container-cli NVIDIA_VISIBLE_DEVICES
NVIDIA_VISIBLE_DEVICES
docker NVIDIA_VISIBLE_DEVICES
NVIDIA_VISIBLE_DEVICES
docker pull nvidia/cuda
libnvidia-container1
nvidia-smi -L
NVIDIA_MIG_CONFIG_DEVICES
GPU-dffa614c-820e-b945-bca1-34811f14846c
Tesla P100-SXM2-16GB
GPU 7
7
all
CMD nvidia-smi
nvidia-smi --gom=
--gom=nvidia-smi --gom=
nvidia-smi --gom=
nvidia-smi --gom=0
nvidia-smi --gom=7
nvidia-smi -pm 1
nvidia-container-runtime
runc
list
docker list
list
cd list
nvidia-smi -c
nvidia-smi -L -c
nvidia-smi -h
nvidia-smi -i, --id=ID
nvidia-smi -q -i, --id=7
nvidia-xconfig --enable-all-gpus
nvidia-smi -i
nvidia-smi
cd teste_DualSPHysics/DualSPHysics/examples/modelo1/modelo1/modelo1
ls
sh wIga2020_linux64_GPU.sh
cd teste_DualSPHysics/DualSPHysics/examples/modelo1/modelo1/modelo1
ls
sh wIga2020_linux64_GPU.sh
ls
sh wIga2020_linux64_GPU.sh
cd teste_DualSPHysics/DualSPHysics/examples/main/01_DamBreak
ls
sh xCaseDambreakVal2D_linux64_GPU.sh
ls
sh xCaseDambreak_linux64_GPU.sh
cd teste_DualSPHysics/DualSPHysics/examples/main/01_DamBreak
ls
sh xCaseDambreak_linux64_GPU.sh
ld
ls
sh xCaseDambreak_linux64_GPU.sh
ls
cd..
cd
cd.
cd..
cd ..
cd teste_DualSPHysics/DualSPHysics/examples/modelo1/modelo1/modelo1
ls
cd dmata
ls
cd teste_DualSPHysics/DualSPHysics/examples/modelo1/modelo1/modelo1
ls
sh wIga2020_linux64_GPU.sh
ls
sh wIga2020_linux64_GPU.sh
ls
sj wIga2020_linux64_GPU.sh
ls
sh wIga2020_linux64_GPU.sh
ls
sh wIga2020_linux64_GPU.sh
ls
sh wIga2020_linux64_GPU.sh
ls
sh wIga2020_linux64_GPU.sh
wIga2020_linux64_GPU.sh: 70: wIga2020_linux64_GPU.sh: ../../../../bin/linux/PartVTKOut_linux64: Permission denied
cd ..
cd..
cd ..
ls
cd DualSPHysics
ld
ls
cd bin
ls
cd linux
ls
chmod +x PartVTKOut_linux64
./PartVTKOut_linux64
chmod +x PartVTKOut_linux64
./PartVTKOut_linux64
sudo ./PartVTKOut_linux64
git pull
cd ..
git pull
ls
cd teste_DualSPHysics
ls
cd DualSPHysics
ls
cd examples
ls
cd modelo1
ls
cd modelo1
ls
cd modelo1
ls
sh wIga2020_linux64_GPU.sh
wIga2020_linux64_GPU.sh: 5: read: Illegal option -n
ls
cd ..
ls
cd ..
ls
cd examples
ls
cd modelo1
ls
cd modelo1
ls
cd Nova pasta
ls
cd Nova
ls
sh xCaseDambreak_linux64_GPU.sh
cd ..
cd ..*
cd ..
cd teste_DualSPHysics/DualSPHysics_v5.0.3/examples/main/01_DamBreak
la
cd dmata
ls
cd teste_DualSPHysics/DualSPHysics_v5.0.3/examples/main/01_DamBreak
ls
sh xCaseDambreakVal2D_linux64_GPU.sh
sh xCaseDambreak_linux64_GPU.sh
sh xCaseDambreakVal2D_linux64_CPU.sh
cd ..
ls
cd dmata
ls
cd teste_DualSPHysics/DualSPHysics/examples/modelo1/modelo1/modelo1
ls
sh wIga2020_linux64_GPU.sh
mkdir ~/2021
cd ~/2021
git clone https://github.com/DualSPHysics/DualSPHysics.git
cd DualSPHysics/src/source/
export DIRTOOLKIT=/usr/local/cuda-9.0
export PATH=/usr/local/cuda-9.0/bin:$PATH
nano Makefile
make clean
make
cd DualSPHysics/src/source/
ls
cd 2021
ls
cd DualSPHysics/src/source/
make clean
make
make clean
make
cd ~/2021/DualSPHysics
sh chpermissions.sh    
ls
cd examples
ls
cd main
ls
cd 01_DamBreak
ls
sh xCaseDambreak_linux64_GPU.sh
ls
sh xCaseDambreak_linux64_GPU.sh
cd ..
ls
cd modelo1
ls
sh wIga2020_linux64_GPU.sh
ls
sh wIga2020_linux64_GPU.sh
cf ..
cd ..
ls
nvidia-smi
ls
cd 2021
ls
cd DualSPHysics
ls
cd examples
ls
cd main
ls
cd modelo1
ls
sh wIga2020_linux64_GPU.sh
ls
cd 2021
ls
cd DualSPHysics
ls
cd examples
ls
cd main
ls
cd modelo1
ls
sh wIga2020_linux64_GPU.sh
cd 2021/DualSPHysics/examples/main/modelo1
ls
sh wIga2020_linux64_GPU.sh
cd 2021/DualSPHysics/examples/main/modelo1
ls
sh wIga2020_linux64_GPU.sh
ls
la
ls
sh wIga2020_linux64_GPU.sh
ls
sh wIga2020_linux64_GPU.sh
cd 2021/DualSPHysics/examples/main/modelo1
ls
shcd 2021/DualSPHysics/examples/main/modelo1
cd 2021/DualSPHysics/examples/main/modelo1
ls
sh wIga2020_linux64_GPU.sh
cd 2021/DualSPHysics/examples/main/modelo1
ls
sh wIga2020_linux64_GPU.sh
cd 2021/DualSPHysics/examples/main/modelo1
ls
sh wIga2020_linux64_GPU.sh
cd 2021/DualSPHysics/examples/main/modelo1
ls
sh wIga2020_linux64_GPU.sh
cd 2021/DualSPHysics/examples/main/modelo1
ls
sh wIga2020_linux64_GPU.sh
cd 2021/DualSPHysics/examples/main/modelo1
ls
sh wIga2020_linux64_GPU.sh
ls
sh wIga2020_linux64_GPU.sh
ls
sh wIga2020_linux64_GPU.sh
nvidia-smi
ls
sh wIga2020_linux64_GPU.sh
nvidia-smi
ls
sh wIga2020_linux64_GPU.sh
la
sh wIga2020_linux64_GPU.sh
cd 2021/DualSPHysics/examples/main/modelo1
ls
sh wIga2020_linux64_GPU.sh
ls
sh wIga2020_linux64_GPU.sh
cd 2021/DualSPHysics/examples/main/modelo1
ls
sh wIga2020_linux64_GPU.sh
cd 2021/DualSPHysics/examples/main/modelo1
ls
sh wIga2020_linux64_GPU.sh
ls
sh wIga2020_linux64_GPU.sh
ls
sh wIga2020_linux64_GPU.sh
ls
sh wIga2020_linux64_GPU.sh
LS
ls
sh wIga2020_linux64_GPU.sh
ls
sh wIga2020_linux64_GPU.sh
ls
sh wIga2020_linux64_GPU.sh
ls
sh wIga2020_linux64_GPU.sh
nvidia-smi
ls
sh wIga2020_linux64_GPU.sh
cd 2021/DualSPHysics/examples/main/modelo1
ls
sh wIga2020_linux64_GPU.sh
ls
sh wIga2020_linux64_GPU.sh
ls
sh wIga2020_linux64_GPU.sh
ls
shwIga2020_linux64_GPU.sh
sh wIga2020_linux64_GPU.sh
ls
sh wIga2020_linux64_GPU.sh
ls
sh wIga2020_linux64_GPU.sh
ls
sh wIga2020_linux64_GPU.sh
ls
sh wIga2020_linux64_GPU.sh
ls
sh wIga2020_linux64_GPU.sh
ls
sh wIga2020_linux64_GPU.sh
ls
sh wIga2020_linux64_GPU.sh
ls
sh wIga2020_linux64_GPU.sh
ls
sh wIga2020_linux64_GPU.sh
ls
sh wIga2020_linux64_GPU.sh
ls
sh wIga2020_linux64_GPU.sh
ls
sh wIga2020_linux64_GPU.sh
ls
sh wIga2020_linux64_GPU.sh
ls
sh wIga2020_linux64_GPU.sh
ls
sh wIga2020_linux64_GPU.sh
ls
sh wIga2020_linux64_GPU.sh
ls
sh wIga2020_linux64_GPU.sh
ls
sh wIga2020_linux64_GPU.sh
ls
sh wIga2020_linux64_GPU.sh
ls
sh wIga2020_linux64_GPU.sh
ls
wIga2020_linux64_GPU.sh
ls
sh wIga2020_linux64_GPU.sh
nvidia-smi
cd 2021/DualSPHysics/examples/main/modelo1
ls
sh wIga2020_linux64_GPU.sh
ls
sh wIga2020_linux64_GPU.sh
ls
sh wIga2020_linux64_GPU.sh
LS
ls
sh wIga2020_linux64_GPU.sh
ls
sh wIga2020_linux64_GPU.sh
ls
sh wIga2020_linux64_GPU.sh
LS
ls
sh wIga2020_linux64_GPU.sh
cd 2021/DualSPHysics/examples/main/modelo1
ls
sh wIga2020_linux64_GPU.sh
ls
sh wIga2020_linux64_GPU.sh
ls
sh wIga2020_linux64_GPU.sh
cd 2021/DualSPHysics/examples/main/modelo1
ls
sh wIga2020_linux64_GPU.sh
cd 2021/DualSPHysics/examples/main/modelo1
ls
sh wIga2020_linux64_GPU.sh
ls
sh wIga2020_linux64_GPU.sh
ls
sh wIga2020_linux64_GPU.sh
cd 2021/DualSPHysics/examples/main/modelo1
ls
sh wIga2020_linux64_GPU.sh
ls
sh wIga2020_linux64_GPU.sh
ls
sh wIga2020_linux64_GPU.sh
ls
sh wIga2020_linux64_GPU.sh
ls
sh wIga2020_linux64_GPU.sh
cd 2021/DualSPHysics/examples/main/modelo1
ls
sh wIga2020_linux64_GPU.sh
cd 2021/DualSPHysics/examples/main/modelo1
ls
ssh
screen -ls
ls
screen ls
screen-ls
screen -ls
cd ..
screen ls
screen -ls
ps aux | grep wIga2020_linux64_GPU.sh
screen
cd 2021/DualSPHysics/examples/main/modelo1
ls
sh wIga2020_linux64_GPU.sh
cd 2021/DualSPHysics/examples/main/modelo1
ls
sh wIga2020_linux64_GPU.sh
screen -ls
ls
cd 2021/DualSPHysics/examples/main/modelo1
ls
sh wIga2020_linux64_GPU.sh
cd 2021/DualSPHysics/examples/main/modelo1
ls
sh wIga2020_linux64_GPU.sh
cd 2021/DualSPHysics/examples/main/modelo1
ls
sh wIga2020_linux64_GPU.sh
screen -ls
ls 5978.pts-12.dgxnvidia
sh 5978.pts-12.dgxnvidia
cd 5978.pts-12.dgxnvidia
sh 5978.pts-12.dgxnvidia
cd 2021/DualSPHysics/examples/main/modelo1
ls
cd 2021/DualSPHysics/examples/main/modelo1
ls
sh wIga2020_linux64_GPU.sh
cd 2021/DualSPHysics/examples/main/modelo1
ls
sh wIga2020_linux64_GPU.sh
cd 2021/DualSPHysics/examples/main/modelo1
ls
sh wIga2020_linux64_GPU.sh
ls
sh wIga2020_linux64_GPU.sh
ls
sh wIga2020_linux64_GPU.sh
ls
sh wIga2020_linux64_GPU.sh
ls
sh wIga2020_linux64_GPU.sh
cd 2021/DualSPHysics/examples/main/modelo1
ls
sh wIga2020_linux64_GPU.sh
ls
~sh wIga2020_linux64_GPU.sh
sh wIga2020_linux64_GPU.sh
ls
sh wIga2020_linux64_GPU.sh
cd 2021/DualSPHysics/examples/main/modelo1
ls
sh wIga2020_linux64_GPU.sh
cd 2021/DualSPHysics/examples/main/modelo1
ls
sh wIga2020_linux64_GPU.sh
ls
cd 2021/DualSPHysics/examples/main/modelo1
ls
sh wIga2020_linux64_GPU.sh
ls
sh wIga2020_linux64_GPU.sh
ls
sh wIga2020_linux64_GPU.sh
ls
sh wIga2020_linux64_GPU.sh
ls
sh wIga2020_linux64_GPU.sh
cd 2021/DualSPHysics/examples/main/modelo1
ls
sh wIga2020_linux64_GPU.sh
cd 2021/DualSPHysics/examples/main/modelo1
ls
sh wIga2020_linux64_GPU.sh
ls
sh wIga2020_linux64_GPU.sh
ls
sh wIga2020_linux64_GPU.sh
ls
sh wIga2020_linux64_GPU.sh
ls
sh wIga2020_linux64_GPU.sh
ls
sh wIga2020_linux64_GPU.sh
cd 2021/DualSPHysics/examples/main/modelo1
ls
rm x_out
rmdir x_out
rm -rf x_out
ls
rm -rf logs
ls
sh wIga2020_linux64_GPU.sh
cd 2021/DualSPHysics/examples/main/modelo1
ls
sh wIga2020_linux64_GPU.sh
ls
sh wIga2020_linux64_GPU.sh
nvidia-smi
ls
rm -rf x_out
ls
rm -rf logs
ls
sh wIga2020_linux64_GPU.sh
nvidia-smi
ls
sh wIga2020_linux64_GPU.sh
cd 2021/DualSPHysics/examples/main/modelo1
ls
sh wIga2020_linux64_GPU.sh
ls
sh wIga2020_linux64_GPU.sh
ls
sh wIga2020_linux64_GPU.sh
Failed GPU memory allocation. (CUDA error 2 (out of memory)).
ls
sh wIga2020_linux64_GPU.sh
ls
sh wIga2020_linux64_GPU.sh
ls
sh wIga2020_linux64_GPU.sh
ls
sh wIga2020_linux64_GPU.sh
cd 2021/DualSPHysics/examples/main/modelo1
ls
sh wIga2020_linux64_GPU.sh
cd 2021/DualSPHysics/examples/main/modelo1
ls
sh wIga2020_linux64_GPU.sh
cd 2021/DualSPHysics/examples/main/modelo1
ls
sh wIga2020_linux64_GPU.sh
cd 2021/DualSPHysics/examples/main/modelo1
ls
sh wIga2020_linux64_GPU.sh
cd 2021/DualSPHysics/examples/main/modelo1
screen -r
ls
cd dmata
ls
cd 2021
ls
cd DualSPHysics
ls
cd examples
ls
cd main
ls
cd modelo1
ls
sh wIga2020_linux64_GPU.sh
exit
cd 2021/DualSPHysics/examples/main/modelo1
ls
sh wIga2020_linux64_GPU.sh
nvidia-smi
ls
sh wIga2020_linux64_GPU.sh
ls
sh wIga2020_linux64_GPU.sh
ls
sh wIga2020_linux64_GPU.sh
nvidis-smi
nvidia-smi
ls
sh wIga2020_linux64_GPU.sh
ls
sh wIga2020_linux64_GPU.sh
ls
sh wIga2020_linux64_GPU.sh
Text: Particle-i was not found in Partlicle-j array.
ls
sh wIga2020_linux64_GPU.sh
ls
sh wIga2020_linux64_GPU.sh
ls
sh wIga2020_linux64_GPU.sh
cd 2021/DualSPHysics/examples/main/modelo1
ls
sh wIga2020_linux64_GPU.sh
ls
sh wIga2020_linux64_GPU.sh
ls
sh wIga2020_linux64_GPU.sh
ls
sh wIga2020_linux64_GPU.sh
ls
sh wIga2020_linux64_GPU.sh
ls
sh wIga2020_linux64_GPU.sh
cd 2021/DualSPHysics/examples/main/modelo1
ls
sh wIga2020_linux64_GPU.sh
ls
sh wIga2020_linux64_GPU.sh
ls
sh wIga2020_linux64_GPU.sh
cd 2021/DualSPHysics/examples/main/modelo1
ls
sh wIga2020_linux64_GPU.sh
cd 2021/DualSPHysics/examples/main/modelo1
ls
sh wIga2020_linux64_GPU.sh
ls
sh wIga2020_linux64_GPU.sh
ls
sh wIga2020_linux64_GPU.sh
ls
sh wIga2020_linux64_GPU.sh
ls
sh wIga2020_linux64_GPU.sh
ls
sh wIga2020_linux64_GPU.sh
ls
sh wIga2020_linux64_GPU.sh
ls
sh wIga2020_linux64_GPU.sh
cd 2021/DualSPHysics/examples/main/modelo1
ls
sh iga_3_pool_6.stl  PointsVelocity_1_0m.txt  wIga2020_linux64_GPU.sh
ls
sh wIga2020_linux64_GPU.sh
ls
sh wIga2020_linux64_GPU.sh
ls
sh wIga2020_linux64_GPU.sh
ls
sh wIga2020_linux64_GPU.sh
cd 2021/DualSPHysics/examples/main/modelo1
ls
sh wIga2020_linux64_GPU.sh
ls
sh wIga2020_linux64_GPU.sh
ls
sh wIga2020_linux64_GPU.sh
ls
sh wIga2020_linux64_GPU.sh
ls
sh wIga2020_linux64_GPU.sh
cd 2021/DualSPHysics/examples/main/modelo1
ls
sh wIga2020_linux64_GPU.sh
ls
sh wIga2020_linux64_GPU.sh
ls
sh wIga2020_linux64_GPU.sh
ls
sh wIga2020_linux64_GPU.sh
ls
sh wIga2020_linux64_GPU.sh
ls
sh wIga2020_linux64_GPU.sh
ls
sh wIga2020_linux64_GPU.sh
ls
]sh wIga2020_linux64_GPU.sh
sh wIga2020_linux64_GPU.sh
ls
sh wIga2020_linux64_GPU.sh
ls
sh wIga2020_linux64_GPU.sh
ls
sh wIga2020_linux64_GPU.sh
ls
sh wIga2020_linux64_GPU.sh
ls
sh wIga2020_linux64_GPU.sh
ls
sh wIga2020_linux64_GPU.sh
ls
sh wIga2020_linux64_GPU.sh
ls
sh wIga2020_linux64_GPU.sh
cd 2021/DualSPHysics/examples/main/modelo1
ls
sh wIga2020_linux64_GPU.sh
ls
sh wIga2020_linux64_GPU.sh
ls
sh wIga2020_linux64_GPU.sh
ls
sh wIga2020_linux64_GPU.sh
ls
sh wIga2020_linux64_GPU.sh
ls
sh wIga2020_linux64_GPU.sh
ls
sh wIga2020_linux64_GPU.sh
ls
sh wIga2020_linux64_GPU.sh
ls
sh wIga2020_linux64_GPU.sh
ls
sh wIga2020_linux64_GPU.sh
cd 2021/DualSPHysics/examples/main/modelo1
ls
sh FileBoxes.txt         PointsVelocity_0_2m.txt  wIga2020_linux64_GPU.sh
ls
sh wIga2020_linux64_GPU.sh
LS
ls
sh wIga2020_linux64_GPU.sh
ls
ls
cd 2021
ls
cd DualSPHysics
ls
git pull
cd src
ls
git pull
ls source
git pull
cd ..
cd..
cd ..
la
ls
git clone https://gitlab.com/libeigen/eigen.git
git clone -b master git@github.com:projectchrono/chrono.git
ls
cd 2021
ls
git clone https://gitlab.com/libeigen/eigen.git
git clone -b master git@github.com:projectchrono/chrono.git
git clone https://github.com/projectchrono/chrono.git
ls
mkdir build_chrono
cd build_chrono
ccmake /path/to/chrono
cd ..
git clone https://github.com/Kitware/CMake.git
git clone https://github.com/gcc-mirror/gcc.git
git clone https://github.com/llvm-mirror/clang.git
ls
cd 2021
git clone https://github.com/llvm-mirror/clang.git
ls
cd build_chrono
ccmake /path/to/chrono
cd ..
cd CMake
ls
cd configure
cd Modules
ls
cd ..
ls
cd Source
ls
cd ..
make
cd ..
make
ls
cd CMake
make
make install
cmake
<path-to-source>
sudo apt install cmake
./bootstrap -- -DCMAKE_BUILD_TYPE:STRING=Release
make
make install
cd..
cd .. 
ls
cd build_chrono
ccmake /path/to/chrono
cmake /path/to/chrono
cd ..
ls
cd chrono
cmake-curses-gui
mkdir build_chrono
cd build_chrono
ccmake /path/to/chrono
cd ..
ls
cd template_project
ls
my_example.cpp
docker run
nvidia-smi
ls
cd 2021
ls
cd chrono
ls
cd ..
ls
cd 2021
ls
cmake-curses-gui
git clone https://github.com/projectchrono/chrono.git
ls
cd chrono
ls
mkdir build_chrono
cd build_chrono
ccmake /path/to/chrono
The program 'ccmake' is currently not installed. To run 'ccmake' please ask your administrator to install the package 'cmake-curses-gui'
docker run
docker run -itd --runtime=nvidia -e NVIDIA_VISIBLE_DEVICES=1, --rm --shm-size=1g --ulimit memlock=-1 --ulimit stack=67108864 -v /home/carlos_docker7/resultados:/resultados nvidia/cuda:11.0-devel-ubuntu18.04-chrono-1 bash
docker attach b0c8e360b9c46e408649a05236e302fdaeb60cce8886e297e0ddb6c73427e907
docker run -itd --runtime=nvidia -e NVIDIA_VISIBLE_DEVICES=1, --rm --shm-size=1g --ulimit memlock=-1 --ulimit stack=67108864 -v /home/carlos_docker7/resultados:/resultados nvidia/cuda:11.0-devel-ubuntu18.04-chrono-1 bash
6c4c4a3514bc5c8d09727e8aece64440af53a7ff82ded0a466737bd9c72dedf4
docker attach 6c4c4a3514bc5c8d09727e8aece64440af53a7ff82ded0a466737bd9c72dedf4
ls
cd 2021
ls
cd chrono
ls
nvidia-smi
cd ..
cd chrono
ls
cd 2021
ls
cd chrono
ls
cd template_project
ls
cd ..
ls
cd template_project_vehicle_cosim
ls
cd ..
docker run -itd --runtime=nvidia -e NVIDIA_VISIBLE_DEVICES=1, --rm --shm-size=1g --ulimit memlock=-1 --ulimit stack=67108864 -v /home/carlos_docker7/resultados:/resultados nvidia/cuda:11.0-devel-ubuntu18.04-chrono-1 bash
8119284d439236730dd69415a1a7868f3f710214471aca01952cef2ffa65e66d
docker attach 8119284d439236730dd69415a1a7868f3f710214471aca01952cef2ffa65e66d
ls
cd resultados
ls
cd teste
docker ps
docker attach 8119284d4392
docker run -itd --runtime=nvidia -e NVIDIA_VISIBLE_DEVICES=1, --rm --shm-size=1g --ulimit memlock=-1 --ulimit stack=67108864 -v /home/dmata/resultados:/resultados nvidia/cuda:11.0-devel-ubuntu18.04-chrono-1 bash
cd ..
cd /
docker ps
docker attach bc4c5ce38149
id
ls
cd 
ls
docker ps
docker attach bc4c5ce38149
docker image
docker images
docker run -itd --runtime=nvidia -e NVIDIA_VISIBLE_DEVICES=1,5 --rm --shm-size=1g --ulimit memlock=-1 --ulimit stack=67108864 -v /home/dmata/resultados:/resultados nvidia/cuda:11.0-devel-ubuntu18.04-chrono-1 bash
nvidia-smi
docker run -itd --runtime=nvidia -e NVIDIA_VISIBLE_DEVICES=0,5 --rm --shm-size=1g --ulimit memlock=-1 --ulimit stack=67108864 -v /home/dmata/resultados:/resultados nvidia/cuda:11.0-devel-ubuntu18.04-chrono-1 bash
docker attach fe3fee36197a46e2808d7d0c7c7766c6159a75ef984a1d3a83a88ab8a23775b5
ls
cd resultados
ls
cat saida_demo
docker attach fe3fee36197a46e2808d7d0c7c7766c6159a75ef984a1d3a83a88ab8a23775b5
docker run -itd --runtime=nvidia -e NVIDIA_VISIBLE_DEVICES=0,5 --rm --shm-size=1g --ulimit memlock=-1 --ulimit stack=67108864 -v /home/dmata/resultados:/resultados nvidia/cuda:11.0-devel-ubuntu18.04-chrono-1 bash
docker attach 2acea0560bc833a5cbab6b1eacd0ff758907bb8cf532c70fb9348a217db2f2ca
docker run -itd --runtime=nvidia -e NVIDIA_VISIBLE_DEVICES=0,5 --rm --shm-size=1g --ulimit memlock=-1 --ulimit stack=67108864 -v /home/dmata/resultados:/resultados nvidia/cuda:11.0-devel-ubuntu18.04-chrono-1 bash
docker attach 4ec2d7f09d8422bfb7603d0aaa468286a76497217ef9c43cccfd27c10d87a3bc
docker run -itd --runtime=nvidia -e NVIDIA_VISIBLE_DEVICES=0,5 --rm --shm-size=1g --ulimit memlock=-1 --ulimit stack=67108864 -v /home/dmata/resultados:/resultados nvidia/cuda:11.0-devel-ubuntu18.04-chrono-1 bash
docker attach 79f1e5e98e8161fa9811044a2b8255e71f611d3e7fec85cb5f3869fb663df89e
nvidia-smi
docker run -itd --runtime=nvidia -e NVIDIA_VISIBLE_DEVICES=0,5 --rm --shm-size=1g --ulimit memlock=-1 --ulimit stack=67108864 -v /home/dmata/resultados:/resultados nvidia/cuda:11.0-devel-ubuntu18.04-chrono-1 bash
docker run -itd --runtime=nvidia -e NVIDIA_VISIBLE_DEVICES=5 --rm --shm-size=1g --ulimit memlock=-1 --ulimit stack=67108864 -v /home/dmata/resultados:/resultados nvidia/cuda:11.0-devel-ubuntu18.04-chrono-1 bash
docker attach a055baba4233fabbebc8e3f77a133054c77809cc5d6740af29bfae939f70bb6f
docker commit a055baba4233 nvidia/cuda:11.0-devel-ubuntu18.04-chrono-1
docker attach sha256:5fd3e4e9e07ea5b1589f66484c3d7e46b810fd98c7144f9667da6f43b96d71c4
docker images
docker run -itd --runtime=nvidia -e NVIDIA_VISIBLE_DEVICES=5 --rm --shm-size=1g --ulimit memlock=-1 --ulimit stack=67108864 -v /home/dmata/resultados:/resultados nvidia/cuda:11.0-devel-ubuntu18.04-chrono-1 bash
docker
docker attach 1e1aba7e5f99ce3b747a7f45613de6872cefe47d63ef70f6cbc608d7bd9112f2
docker run -itd --runtime=nvidia -e NVIDIA_VISIBLE_DEVICES=5 --rm --shm-size=1g --ulimit memlock=-1 --ulimit stack=67108864 -v /home/dmata/resultados:/resultados nvidia/cuda:11.0-devel-ubuntu18.04-chrono-1 bash
docker attach 777cdd35ca03af70683ea2f583ad48b1d0ec88f12bc9ac12237cbb281e1a97a5
docker run -itd --runtime=nvidia -e NVIDIA_VISIBLE_DEVICES=5 --rm --shm-size=1g --ulimit memlock=-1 --ulimit stack=67108864 -v /home/dmata/resultados:/resultados nvidia/cuda:11.0-devel-ubuntu18.04-chrono-1 bash
docker attach 4cfa91fe85587db12d6e89f35749d7df3f5edded2178c78a30598df3ecdcc45c
docker commit 4cfa91fe8558 nvidia/cuda:11.0-devel-ubuntu18.04-chrono-1
docker run -itd --runtime=nvidia -e NVIDIA_VISIBLE_DEVICES=5 --rm --shm-size=1g --ulimit memlock=-1 --ulimit stack=67108864 -v /home/dmata/resultados:/resultados nvidia/cuda:11.0-devel-ubuntu18.04-chrono-1 bash
nvidia-smi
docker run -itd --runtime=nvidia -e NVIDIA_VISIBLE_DEVICES=5 --rm --shm-size=1g --ulimit memlock=-1 --ulimit stack=67108864 -v /home/dmata/resultados:/resultados nvidia/cuda:11.0-devel-ubuntu18.04-chrono-1 bash
docker images
docker run -itd --runtime=nvidia -e NVIDIA_VISIBLE_DEVICES=5 --rm --shm-size=1g --ulimit memlock=-1 --ulimit stack=67108864 nvidia/cuda:11.0-devel-ubuntu18.04-chrono-1 bash
docker run -itd --runtime=nvidia -e NVIDIA_VISIBLE_DEVICES=5 --rm --shm-size=1g --ulimit memlock=-1 --ulimit stack=67108864 -v /home/dmata/resultados:/resultados nvidia/cuda:11.0-devel-ubuntu18.04-chrono-1 bash
docker run -itd --runtime=nvidia -e NVIDIA_VISIBLE_DEVICES=0 --rm --shm-size=1g --ulimit memlock=-1 --ulimit stack=67108864 -v /home/dmata/resultados:/resultados nvidia/cuda:11.0-devel-ubuntu18.04-chrono-1 bash
docker run -itd --runtime=nvidia -e NVIDIA_VISIBLE_DEVICES=5 --rm --shm-size=1g --ulimit memlock=-1 --ulimit stack=67108864 -v /home/dmata/resultados:/resultados nvidia/cuda:11.0-devel-ubuntu18.04-chrono-1 bash
docker attach 3df753b98dcca6e9e1325fe0b240b108513591222e9eca02174e1af7240fb582
docker run -itd --runtime=nvidia -e NVIDIA_VISIBLE_DEVICES=5 --rm --shm-size=1g --ulimit memlock=-1 --ulimit stack=67108864 -v /home/dmata/resultados:/resultados nvidia/cuda:11.0-devel-ubuntu18.04-chrono-1 bash
docker run-itd --runtime=nvidia -e NVIDIA_VISIBLE_DEVICES=5 --rm --shm-size=1g --ulimit memlock=-1 --ulimit stack=67108864 -v /home/dmata/resultados:/resultados nvidia/cuda:11.0-devel-ubuntu18.04-chrono-1 bash
docker run -itd --runtime=nvidia -e NVIDIA_VISIBLE_DEVICES=5 --rm --shm-size=1g --ulimit memlock=-1 --ulimit stack=67108864 -v /home/dmata/resultados:/resultados nvidia/cuda:11.0-devel-ubuntu18.04-chrono-1 bash
docker run -itd --runtime=nvidia -e NVIDIA_VISIBLE_DEVICES=0,5 --rm --shm-size=1g --ulimit memlock=-1 --ulimit stack=67108864 -v /home/dmata/resultados:/resultados nvidia/cuda:11.0-devel-ubuntu18.04-chrono-1 bash
docker run -itd --runtime=nvidia -e NVIDIA_VISIBLE_DEVICES=5 --rm --shm-size=1g --ulimit memlock=-1 --ulimit stack=67108864 -v /home/dmata/resultados:/resultados nvidia/cuda:11.0-devel-ubuntu18.04-chrono-1 bash
exit
docker run -itd --runtime=nvidia -e NVIDIA_VISIBLE_DEVICES=1 nvidia/cuda:11.0-devel-ubuntu18.04-chrono-1 bash
docker run -itd --runtime=nvidia -e NVIDIA_VISIBLE_DEVICES=1 --rm --shm-size=1g --ulimit memlock=-1 --ulimit stack=67108864 -v /home/dmata/resultados:/resultados nvidia/cuda:11.0-devel-ubuntu18.04-chrono-1 bash
exit
docker run -itd --runtime=nvidia -e NVIDIA_VISIBLE_DEVICES=0 --rm --shm-size=1g --ulimit memlock=-1 --ulimit stack=67108864 -v /home/dmata/resultados:/resultados nvidia/cuda:11.0-devel-ubuntu18.04-chrono-1 bash
nvidia-smi
nvidia-smi
docker run -itd --runtime=nvidia -e NVIDIA_VISIBLE_DEVICES=1,5 nvidia/cuda:11.0-devel-ubuntu18.04-chrono-1 bash
docker images
docker run -itd --runtime=nvidia -e NVIDIA_VISIBLE_DEVICES=1 --rm --shm-size=1g --ulimit memlock=-1 --ulimit stack=67108864 -v /home/dmata/resultados:/resultados nvidia/cuda:11.0-devel-ubuntu18.04-chrono-1 bash
docker attach 4e877ca10938c9ef66acfeb274d879d936ba72fb37149ddad1af7e8abec38606
docker run -itd --runtime=nvidia -e NVIDIA_VISIBLE_DEVICES=1 --rm --shm-size=1g --ulimit memlock=-1 --ulimit stack=67108864 -v /home/dmata/resultados:/resultados nvidia/cuda:11.0-devel-ubuntu18.04-chrono-1 bash
docker attach 197ac09a5a33fd11f609007f6c4e0e7dcc479fb964bc1838fc6f693d08331335
ls
cd 2021
ls
cd DualSPHysics
ls
cd bin
ls
cd linux
ls
cd ..
ls
cd examples
ls
cd main
ls
cd ..
ls
cd others
ls
cd ..
ls
cd chrono
ls
cd 01_Pendulum
ls
sh xCaseDemolisher_linux64_CPU.sh
ls
nvidia-smi
sinfo
cd /
docker run -itd --runtime=nvidia -e NVIDIA_VISIBLE_DEVICES=1 --rm --shm-size=1g --ulimit memlock=-1 --ulimit stack=67108864 -v /home/dmata/resultados:/resultados nvidia/cuda:11.0-devel-ubuntu18.04-chrono-1 bash
docker run -itd --runtime=nvidia -e NVIDIA_VISIBLE_DEVICES=5 --rm --shm-size=1g --ulimit memlock=-1 --ulimit stack=67108864 -v /home/dmata/resultados:/resultados nvidia/cuda:11.0-devel-ubuntu18.04-chrono-1 bash
exit
docker run -itd --runtime=nvidia -e NVIDIA_VISIBLE_DEVICES=1 --rm --shm-size=1g --ulimit memlock=-1 --ulimit stack=67108864 -v /home/dmata/resultados:/resultados nvidia/cuda:11.0-devel-ubuntu18.04-chrono-1 bash
docker run -itd --runtime=nvidia -e NVIDIA_VISIBLE_DEVICES=5 --rm --shm-size=1g --ulimit memlock=-1 --ulimit stack=67108864 -v /home/dmata/resultados:/resultados nvidia/cuda:11.0-devel-ubuntu18.04-chrono-1 bash
docker run -itd --runtime=nvidia -e NVIDIA_VISIBLE_DEVICES=0 --rm --shm-size=1g --ulimit memlock=-1 --ulimit stack=67108864 -v /home/dmata/resultados:/resultados nvidia/cuda:11.0-devel-ubuntu18.04-chrono-1 bash
docker run -itd --runtime=nvidia -e NVIDIA_VISIBLE_DEVICES=1 nvidia/cuda:11.0-devel-ubuntu18.04-chrono-1 bash
docker run -itd --runtime=nvidia -e NVIDIA_VISIBLE_DEVICES=5 --rm --shm-size=1g --ulimit memlock=-1 --ulimit stack=67108864 -v /home/dmata/resultados:/resultados nvidia/cuda:11.0-devel-ubuntu18.04-chrono-1 bash
nvidia-smi
docker run -itd --runtime=nvidia -e NVIDIA_VISIBLE_DEVICES=5 --rm --shm-size=1g --ulimit memlock=-1 --ulimit stack=67108864 -v /home/dmata/resultados:/resultados nvidia/cuda:11.0-devel-ubuntu18.04-chrono-1 bash
docker run -itd --runtime=nvidia -e NVIDIA_VISIBLE_DEVICES=1 --rm --shm-size=1g --ulimit memlock=-1 --ulimit stack=67108864 -v /home/dmata/resultados:/resultados nvidia/cuda:11.0-devel-ubuntu18.04-chrono-1 bash
docker run -itd --runtime=nvidia -e NVIDIA_VISIBLE_DEVICES=5 --rm --shm-size=1g --ulimit memlock=-1 --ulimit stack=67108864 -v /home/dmata/resultados:/resultados nvidia/cuda:11.0-devel-ubuntu18.04-chrono-1 bash
docker images
docker run -itd --runtime=nvidia -e NVIDIA_VISIBLE_DEVICES=5 --rm --shm-size=1g --ulimit memlock=-1 --ulimit stack=67108864 -v /home/dmata/resultados:/resultados nvidia/cuda:11.0-devel-ubuntu18.04-chrono-1 bash
exit
docker run -itd --runtime=nvidia -e NVIDIA_VISIBLE_DEVICES=0,5 --rm --shm-size=1g --ulimit memlock=-1 --ulimit stack=67108864 -v /home/dmata/resultados:/resultados nvidia/cuda:11.0-devel-ubuntu18.04-chrono-1 bash
exit
nvidia-smi
docker run -itd --runtime=nvidia -e NVIDIA_VISIBLE_DEVICES=0,5 --rm --shm-size=1g --ulimit memlock=-1 --ulimit stack=67108864 -v /home/dmata/resultados:/resultados nvidia/cuda:11.0-devel-ubuntu18.04-chrono-1 bash
dbd9489443312730e877c18050160bd7fbbb90ad4f0f711365a04153dcddcff7
docker attach dbd9489443312730e877c18050160bd7fbbb90ad4f0f711365a04153dcddcff7
docker run -itd --runtime=nvidia -e NVIDIA_VISIBLE_DEVICES=1 nvidia/cuda:11.0-devel-ubuntu18.04-chrono-1
docker run -itd --runtime=nvidia -e NVIDIA_VISIBLE_DEVICES=1 --rm --shm-size=1g --ulimit memlock=-1 --ulimit stack=67108864 -v /home/dmata/resultados:/resultados nvidia/cuda:11.0-devel-ubuntu18.04-chrono-1 bash
docker run -itd --runtime=nvidia -e NVIDIA_VISIBLE_DEVICES=5 --rm --shm-size=1g --ulimit memlock=-1 --ulimit stack=67108864 -v /home/dmata/resultados:/resultados nvidia/cuda:11.0-devel-ubuntu18.04-chrono-1 bash
docker attach 3372746f737823e2aff0a0226b222d4d764b14c854b87ca48158f59a3aefa4db
docker run -itd --runtime=nvidia -e NVIDIA_VISIBLE_DEVICES=5 --rm --shm-size=1g --ulimit memlock=-1 --ulimit stack=67108864 -v /home/dmata/resultados:/resultados nvidia/cuda:11.0-devel-ubuntu18.04-chrono-1 bash
exit
docker attach 3d68c7bd8fce8a184998e87b5ba83dace5882384405b0fa4b734d92a6494ecba
docker run -itd --runtime=nvidia -e NVIDIA_VISIBLE_DEVICES=5 --rm --shm-size=1g --ulimit memlock=-1 --ulimit stack=67108864 -v /home/dmata/resultados:/resultados nvidia/cuda:11.0-devel-ubuntu18.04-chrono-1 bash
docker run -itd --runtime=nvidia -e NVIDIA_VISIBLE_DEVICES=5 --rm --shm-size=1g --ulimit memlock=-1 --ulimit stack=67108864 -v /home/dmata/resultados:/resultados nvidia/cuda:11.0-devel-ubuntu18.04-chrono-1 bash
docker run -itd --runtime=nvidia -e NVIDIA_VISIBLE_DEVICES=0 --rm --shm-size=1g --ulimit memlock=-1 --ulimit stack=67108864 -v /home/dmata/resultados:/resultados nvidia/cuda:11.0-devel-ubuntu18.04-chrono-1 bash
docker run -itd --runtime=nvidia -e NVIDIA_VISIBLE_DEVICES=1 --rm --shm-size=1g --ulimit memlock=-1 --ulimit stack=67108864 -v /home/dmata/resultados:/resultados nvidia/cuda:11.0-devel-ubuntu18.04-chrono-1 bash
docker run -itd --runtime=nvidia -e NVIDIA_VISIBLE_DEVICES=5 --rm --shm-size=1g --ulimit memlock=-1 --ulimit stack=67108864 -v /home/dmata/resultados:/resultados nvidia/cuda:11.0-devel-ubuntu18.04-chrono-1 bash
docker run -itd --runtime=nvidia -e NVIDIA_VISIBLE_DEVICES=1 --rm --shm-size=1g --ulimit memlock=-1 --ulimit stack=67108864 -v /home/dmata/resultados:/resultados nvidia/cuda:11.0-devel-ubuntu18.04-chrono-1 bash
docker run -itd --runtime=nvidia -e NVIDIA_VISIBLE_DEVICES=0 --rm --shm-size=1g --ulimit memlock=-1 --ulimit stack=67108864 -v /home/dmata/resultados:/resultados nvidia/cuda:11.0-devel-ubuntu18.04-chrono-1 bash
clear
docker run -itd --runtime=nvidia -e NVIDIA_VISIBLE_DEVICES=0 --rm --shm-size=1g --ulimit memlock=-1 --ulimit stack=67108864 -v /home/dmata/resultados:/resultados nvidia/cuda:11.0-devel-ubuntu18.04-chrono-1 bash
exit
docker run -itd --runtime=nvidia -e NVIDIA_VISIBLE_DEVICES=5 --rm --shm-size=1g --ulimit memlock=-1 --ulimit stack=67108864 -v /home/dmata/resultados:/resultados nvidia/cuda:11.0-devel-ubuntu18.04-chrono-1 bash
docker run -itd --runtime=nvidia -e NVIDIA_VISIBLE_DEVICES=0 --rm --shm-size=1g --ulimit memlock=-1 --ulimit stack=67108864 -v /home/dmata/resultados:/resultados nvidia/cuda:11.0-devel-ubuntu18.04-chrono-1 bash
docker run -itd --runtime=nvidia -e NVIDIA_VISIBLE_DEVICES=5 --rm --shm-size=1g --ulimit memlock=-1 --ulimit stack=67108864 -v /home/dmata/resultados:/resultados nvidia/cuda:11.0-devel-ubuntu18.04-chrono-1 bash
exit
docker ps
docker run -itd --runtime=nvidia -e NVIDIA_VISIBLE_DEVICES=1 --rm --shm-size=1g --ulimit memlock=-1 --ulimit stack=67108864 -v /home/dmata/resultados:/resultados nvidia/cuda:11.0-devel-ubuntu18.04-chrono-1 bash
docker: Error response from daemon: OCI runtime create failed: container_linux.go:348: starting container process caused "process_linux.go:402: container init caused \"process_linux.go:385: running prestart hook 1 caused \\\"error running hook: exit status 1, stdout: , stderr: exec command: [/usr/bin/nvidia-container-cli --load-kmods configure --ldconfig=@/sbin/ldconfig.real --device=1 --compute --utility --require=cuda>=11.0 brand=tesla,driver>=418,driver<419 brand=tesla,driver>=440,driver<441 brand=tesla,driver>=450,driver<451 --pid=80237 /raid/docker/overlay2/a6138c2fb609ed4c6c985ab9d2e6c6e221bf8adc70695de051cd96ae4e293732/merged]\\\\nnvidia-container-cli: initialization error: driver error: timed out\\\\n\\\"\"": unknown.
docker run -itd --runtime=nvidia -e NVIDIA_VISIBLE_DEVICES=1 --rm --shm-size=1g --ulimit memlock=-1 --ulimit stack=67108864 -v /home/dmata/resultados:/resultados nvidia/cuda:11.0-devel-ubuntu18.04-chrono-1 bash
docker run -itd --runtime=nvidia -e NVIDIA_VISIBLE_DEVICES=5 --rm --shm-size=1g --ulimit memlock=-1 --ulimit stack=67108864 -v /home/dmata/resultados:/resultados nvidia/cuda:11.0-devel-ubuntu18.04-chrono-1 bash
-itd --runtime=nvidia -e NVIDIA_VISIBLE_DEVICES=5 --rm --shm-size=1g --ulimit memlock=-1 --ulimit stack=67108864 -v /home/dmata/resultados:/resultados nvidia/cuda:11.0-devel-ubuntu18.04-chrono-1 bash
docker run -itd --runtime=nvidia -e NVIDIA_VISIBLE_DEVICES=1 --rm --shm-size=1g --ulimit memlock=-1 --ulimit stack=67108864 -v /home/dmata/resultados:/resultados nvidia/cuda:11.0-devel-ubuntu18.04-chrono-1 bash
docker run -itd --runtime=nvidia -e NVIDIA_VISIBLE_DEVICES=1 nvidia/cuda:11.0-devel-ubuntu18.04-chrono-1 bash
docker run -itd --runtime=nvidia -e NVIDIA_VISIBLE_DEVICES=5 --rm --shm-size=1g --ulimit memlock=-1 --ulimit stack=67108864 -v /home/dmata/resultados:/resultados nvidia/cuda:11.0-devel-ubuntu18.04-chrono-1 bash
exit
docker run -itd --runtime=nvidia -e NVIDIA_VISIBLE_DEVICES=5 --rm --shm-size=1g --ulimit memlock=-1 --ulimit stack=67108864 -v /home/dmata/resultados:/resultados nvidia/cuda:11.0-devel-ubuntu18.04-chrono-1 bash
docker attach ca51b53ed847dfe792f8345c9fb3cc4afe9adcae3a2fa52dd8eb009a2d15a2a8
docker run -itd --runtime=nvidia -e NVIDIA_VISIBLE_DEVICES=1 nvidia/cuda:11.0-devel-ubuntu18.04-chrono-1 bash
nvidia-smi
docker run -itd --runtime=nvidia -e NVIDIA_VISIBLE_DEVICES=5 --rm --shm-size=1g --ulimit memlock=-1 --ulimit stack=67108864 -v /home/dmata/resultados:/resultados nvidia/cuda:11.0-devel-ubuntu18.04-chrono-1 bash
-itd --runtime=nvidia -e NVIDIA_VISIBLE_DEVICES=5 --rm --shm-size=1g --ulimit memlock=-1 --ulimit stack=67108864 -v /home/dmata/resultados:/resultados nvidia/cuda:11.0-devel-ubuntu18.04-chrono-1 bash
docker run -itd --runtime=nvidia -e NVIDIA_VISIBLE_DEVICES=5 --rm --shm-size=1g --ulimit memlock=-1 --ulimit stack=67108864 -v /home/dmata/resultados:/resultados nvidia/cuda:11.0-devel-ubuntu18.04-chrono-1 bash
docker run -itd --runtime=nvidia -e NVIDIA_VISIBLE_DEVICES=0,2 nvidia/cuda:11.0-devel-ubuntu18.04-chrono-1 bash
exit
docker run -itd --runtime=nvidia -e NVIDIA_VISIBLE_DEVICES=0,2 nvidia/cuda:11.0-devel-ubuntu18.04-chrono-1 bash
docker run -itd --runtime=nvidia -e NVIDIA_VISIBLE_DEVICES=2 nvidia/cuda:11.0-devel-ubuntu18.04-chrono-1 bash
docker run -itd --runtime=nvidia -e NVIDIA_VISIBLE_DEVICES=0 --rm --shm-size=1g --ulimit memlock=-1 --ulimit stack=67108864 -v /home/dmata/resultados:/resultados nvidia/cuda:11.0-devel-ubuntu18.04-chrono-1 bash
docker run -itd --runtime=nvidia -e NVIDIA_VISIBLE_DEVICES=5 --rm --shm-size=1g --ulimit memlock=-1 --ulimit stack=67108864 -v /home/dmata/resultados:/resultados nvidia/cuda:11.0-devel-ubuntu18.04-chrono-1 bash
exit
docker run -itd --runtime=nvidia -e NVIDIA_VISIBLE_DEVICES=0 --rm --shm-size=1g --ulimit memlock=-1 --ulimit stack=67108864 -v /home/dmata/resultados:/resultados nvidia/cuda:11.0-devel-ubuntu18.04-chrono-1 bash
docker run -itd --runtime=nvidia -e NVIDIA_VISIBLE_DEVICES=1 --rm --shm-size=1g --ulimit memlock=-1 --ulimit stack=67108864 -v /home/dmata/resultados:/resultados nvidia/cuda:11.0-devel-ubuntu18.04-chrono-1 bash
docker run -itd --runtime=nvidia -e NVIDIA_VISIBLE_DEVICES=2 --rm --shm-size=1g --ulimit memlock=-1 --ulimit stack=67108864 -v /home/dmata/resultados:/resultados nvidia/cuda:11.0-devel-ubuntu18.04-chrono-1 bash
exit
docker run -itd --runtime=nvidia -e NVIDIA_VISIBLE_DEVICES=2 --rm --shm-size=1g --ulimit memlock=-1 --ulimit stack=67108864 -v /home/dmata/resultados:/resultados nvidia/cuda:11.0-devel-ubuntu18.04-chrono-1 bash
exit
nvidia-smi
n2X7$aoTn3
docker run -itd --runtime=nvidia -e NVIDIA_VISIBLE_DEVICES=2 --rm --shm-size=1g --ulimit memlock=-1 --ulimit stack=67108864 -v /home/dmata/resultados:/resultados nvidia/cuda:11.0-devel-ubuntu18.04-chrono-1 bash
ls
ls -la
docker run -itd --runtime=nvidia -e NVIDIA_VISIBLE_DEVICES=2 --rm --shm-size=1g --ulimit memlock=-1 --ulimit stack=67108864 -v /home/dmata/resultados:/resultados nvidia/cuda:11.0-devel-ubuntu18.04-chrono-1 bash
docker attach a915e4290c9b00dc0af4092eba7a9921a8b38054277221e98eed79df5355e5d9
df -h
uptime
exit
docker run -itd --runtime=nvidia -e NVIDIA_VISIBLE_DEVICES=2 --rm --shm-size=1g --ulimit memlock=-1 --ulimit stack=67108864 -v /home/dmata/resultados:/resultados nvidia/cuda:11.0-devel-ubuntu18.04-chrono-1 bash
git attach 36206af6914a46dc979307364c9f34c46070a899b23a7b06dc18de89e0399e58
docker attach 36206af6914a46dc979307364c9f34c46070a899b23a7b06dc18de89e0399e58
docker run -itd --runtime=nvidia -e NVIDIA_VISIBLE_DEVICES=2 --rm --shm-size=1g --ulimit memlock=-1 --ulimit stack=67108864 -v /home/dmata/resultados:/resultados nvidia/cuda:11.0-devel-ubuntu18.04-chrono-1 bash
docker attach 78e8b1b4ab2a799dee666526d6ef05d8d9ccbb5af28476ed762eed76520cd2b2
docker images | grep chrono
docker ps | grep chrono
78e8b1b4ab2a        nvidia/cuda:11.0-devel-ubuntu18.04-chrono-1   "bash"              9 minutes ago       Up 9 minutes                            hungry_easley
36206af6914a        nvidia/cuda:11.0-devel-ubuntu18.04-chrono-1   "bash"              2 hours ago         Up 2 hours                              keen_feynman
docker attach 36206af6914a
docker attach 78e8b1b4ab2a
docker ps | grep chrono
docker attach 36206af6914a
docker commit 36206af6914a  nvidia/cuda:11.0-devel-ubuntu18.04-chrono-1   
docker run -itd --runtime=nvidia -e NVIDIA_VISIBLE_DEVICES=2 --rm --shm-size=1g --ulimit memlock=-1 --ulimit stack=67108864 -v /home/dmata/resultados:/resultados nvidia/cuda:11.0-devel-ubuntu18.04-chrono-1 bash
docker attach a526a3c485e8259ebef9f4393d56f586932a03a685d0eaf9d247e77fa28a5739
docker images
docker ps | grep chrono
docker attach a526a3c485e8
docker commit a526a3c485e8  nvidia/cuda:11.0-devel-ubuntu18.04-chrono-1
docker ps | grep chrono
docker images | grep chrono
docker run -itd --runtime=nvidia -e NVIDIA_VISIBLE_DEVICES=2 --rm --shm-size=1g --ulimit memlock=-1 --ulimit stack=67108864 -v /home/dmata/resultados:/resultados nvidia/cuda:11.0-devel-ubuntu18.04-chrono-1 bash
docker attach 2c636809af91f3e99278ba063b442b927dfb81e4dc5ebba9299bba6c1f993bbd
exit
docker run -itd --runtime=nvidia -e NVIDIA_VISIBLE_DEVICES=2 --rm --shm-size=1g --ulimit memlock=-1 --ulimit stack=67108864 -v /home/dmata/resultados:/resultados nvidia/cuda:11.0-devel-ubuntu18.04-chrono-1 bash
docker attach 378f6ce41c66af15a2b023271c14e70118bee62194692d5888546b960b3ea948
docker run -itd --runtime=nvidia -e NVIDIA_VISIBLE_DEVICES=2 --rm --shm-size=1g --ulimit memlock=-1 --ulimit stack=67108864 -v /home/dmata/resultados:/resultados nvidia/cuda:11.0-devel-ubuntu18.04-chrono-1 bash
docker attach
docker attach 254c1abb23b8e937c643ed78a507a9c5176a3d537f86de08dc674e01db2b52ea
docker images
docker run -itd --runtime=nvidia -e NVIDIA_VISIBLE_DEVICES=2 --rm --shm-size=1g --ulimit memlock=-1 --ulimit stack=67108864 -v /home/dmata/resultados:/resultados nvidia/cuda:11.0-devel-ubuntu18.04-chrono-1 bash
docker attach
docker attach b2c5c9d9869dfd7615cdd6ee9975985ff93e4ce36e401db5d8aaa5c84fad88e7
docker ps | grep chrono
docker attach 378f6ce41c66
docker commit 378f6ce41c66
docker attach 254c1abb23b8
docker attach b2c5c9d9869d
docker attach 378f6ce41c66
docker commit 378f6ce41c66
docker ps | grep chrono
nvidia-smi
docker run -itd --runtime=nvidia -e NVIDIA_VISIBLE_DEVICES=0 --rm --shm-size=1g --ulimit memlock=-1 --ulimit stack=67108864 -v /home/dmata/resultados:/resultados nvidia/cuda:11.0-devel-ubuntu18.04-chrono-1 bash
docker attach 6ae27fe95fe3c1d63ed42bcfdbc594acd7213342343d9ae425bdffe5563af845
docker ps | grep chrono
docker attach 378f6ce41c66
docker commit 378f6ce41c66
docker attach 590d829b5a6a15f73aad0c08dd6086c61cd39deb906229890060310ca6a36045
docker ps | grep chrono
docker attach 6ae27fe95fe3
docker ps | grep chrono
docker attach 378f6ce41c66
docker run -itd --runtime=nvidia -e NVIDIA_VISIBLE_DEVICES=0, --rm --shm-size=1g --ulimit memlock=-1 --ulimit stack=67108864 -v /home/dmata/resultados:/resultados  nvidia/cuda:9.0-devel bash
docker attach 75cb947e7ca2a2cde01c73316f761b867b7a6b6d5a44e00adbf19269bab53f63
docker images
docker run -itd --runtime=nvidia -e NVIDIA_VISIBLE_DEVICES=0, --rm --shm-size=1g --ulimit memlock=-1 --ulimit stack=67108864 -v /home/dmata/resultados:/resultados  nvidia/cuda:9.2-devel-ubuntu16.04 bash
docker attach 90f9f3a49f01cf5e0bc7e6fbc0fccc072558c966439b06c3149cf53202652b88
docker run -itd --runtime=nvidia -e NVIDIA_VISIBLE_DEVICES=7, --rm --shm-size=1g --ulimit memlock=-1 --ulimit stack=67108864 -v /home/dmata/resultados:/resultados  nvidia/cuda:9.0-devel bash
docker attach f99f95700bd6ede2701e3308018ad257ad10817a4a484754e3971b9798d88ec8
docker commit f99f95700bd6
docker run -itd --runtime=nvidia -e NVIDIA_VISIBLE_DEVICES=0 --rm --shm-size=1g --ulimit memlock=-1 --ulimit stack=67108864 -v /home/dmata/resultados:/resultados nvidia/cuda:11.0-devel-ubuntu18.04-chrono-1 bash
docker attach 5c6c4a1a761e984a3b782573a8a9f00031eb087850008948ce88186a217a62ac
docker ps | grep chrono
docker attach 378f6ce41c66
docker commit 378f6ce41c66
docker attach 5c6c4a1a761e
docker run -itd --runtime=nvidia -e NVIDIA_VISIBLE_DEVICES=0, --rm --shm-size=1g --ulimit memlock=-1 --ulimit stack=67108864 -v /home/dmata/resultados:/resultados  nvidia/cuda:9.2-devel-ubuntu16.04 bash
docker attach cbe1e9cfd28bdc6a26ea3c85d3eddf00e7601e6ab4ab5f54c1667f3ddabd6e0b
docker ps | grep 9.2-devel-ubuntu16.0
docker commit 90f9f3a49f01
docker attach cbe1e9cfd28b
docker run -itd --runtime=nvidia -e NVIDIA_VISIBLE_DEVICES=0, --rm --shm-size=1g --ulimit memlock=-1 --ulimit stack=67108864 -v /home/dmata/resultados:/resultados  nvidia/cuda:9.2-devel-ubuntu16.04 bash
docker attach dc2c8a8e41f4adedd4bffe301b680b6232b2bc983229922cf0f2476b83ed92b9
docker attach 90f9f3a49f01
docker ps | grep 9.2-devel-ubuntu16.0
docker attach 90f9f3a49f01
docker attach dc2c8a8e41f4
docker run -itd --runtime=nvidia -e NVIDIA_VISIBLE_DEVICES=0 --rm --shm-size=1g --ulimit memlock=-1 --ulimit stack=67108864 -v /home/dmata/resultados:/resultados nvidia/cuda:11.0-devel-ubuntu18.04-chrono-1 bash
docker attach 3cf910f49f156734346691dbb7935deb05bbd6433f69c969dc73554a38e5a7b0
docker ps | grep chrono
docker attach 378f6ce41c66
docker attach 3cf910f49f15
docker ps | grep chrono
docker attach 378f6ce41c66
docker run -itd --runtime=nvidia -e NVIDIA_VISIBLE_DEVICES=2 --rm --shm-size=1g --ulimit memlock=-1 --ulimit stack=67108864 -v /home/dmata/resultados:/resultados nvidia/cuda:11.0-devel-ubuntu18.04-chrono-1 bash
docker attach c868fd38d89c4c68bb63b696823e578a2e91dfa426a73b1bf83aa0d47bce0aca
docker ps | grep chrono
docker attach 378f6ce41c66
docker commit 378f6ce41c66
docker ps | grep chrono
docker attach 378f6ce41c66
docker ps | grep chrono
docker attach c868fd38d89c
docker ps | grep chrono
nvidia-smi
docker run -itd --runtime=nvidia -e NVIDIA_VISIBLE_DEVICES=0,1,2,5 --rm --shm-size=1g --ulimit memlock=-1 --ulimit stack=67108864 -v /home/dmata/resultados:/resultados nvidia/cuda:11.0-devel-ubuntu18.04-chrono-1 bash
docker attach a8b06492e3b913a4a40942e06ea8917c32888b60ce340443f3474dcabf073758
docker ps | grep chrono
docker attach a8b06492e3b9
docker attach 378f6ce41c66
docker commit 378f6ce41c66 nvidia/cuda:11.0-devel-ubuntu18.04-chrono-1
docker attach a8b06492e3b9
docker run -itd --runtime=nvidia -e NVIDIA_VISIBLE_DEVICES=0,1,2,5 --rm --shm-size=1g --ulimit memlock=-1 --ulimit stack=67108864 -v /home/dmata/resultados:/resultados nvidia/cuda:11.0-devel-ubuntu18.04-chrono-1 bash
docker attach 9125baa3edb857177d19a36157ec582516f8d743f3b60c6810f6448763e86778
docker ps | grep chrono
docker attach 9125baa3edb8
docker run -itd --runtime=nvidia -e NVIDIA_VISIBLE_DEVICES=0,1,2,5 --rm --shm-size=1g --ulimit memlock=-1 --ulimit stack=67108864 -v /home/dmata/resultados:/resultados nvidia/cuda:11.0-devel-ubuntu18.04-chrono-1 bash
docker attach 8b0e5aafb1fc5bda1c4a347c970607177f4fc7c8a6c4d8d6265b643e0e5b3702
ls
cd resultados
ls
saida_demo
cd saida_demo
vim saida_demo
cd /
nvidia-smi
docker run -itd --runtime=nvidia -e NVIDIA_VISIBLE_DEVICES=0 --rm --shm-size=1g --ulimit memlock=-1 --ulimit stack=67108864 -v /home/dmata/resultados:/resultados nvidia/cuda:11.0-devel-ubuntu18.04-chrono-1 bash
docker run -itd --runtime=nvidia -e NVIDIA_VISIBLE_DEVICES=0, --rm --shm-size=1g --ulimit memlock=-1 --ulimit stack=67108864 -v /home/dmata/resultados:/resultados  nvidia/cuda:9.2-devel-ubuntu16.04 bash
docker attach 5afd291ec320a53258bbc21c1e0adbf5310f0dc695e16b6a41f7ffc40dec1a3c
grep | ps chrono
docker ps | grep chrono
la
docker ps | grep chrono
ls
cd ..
cd /
docker ps | grep chrono
docker run -itd --runtime=nvidia -e NVIDIA_VISIBLE_DEVICES=0, --rm --shm-size=1g --ulimit memlock=-1 --ulimit stack=67108864 -v /home/dmata/resultados:/resultados  nvidia/cuda:9.2-devel-ubuntu16.04 bash
docker attach 90df5570aedd7928fac7f8d76cf871523eb9be8c48ca6bcf16b5c4a6c9a0f53b
docker images | grep chrono
docker attach 8925cda2c669
docker run 8925cda2c669
docker run -itd --runtime=nvidia -e NVIDIA_VISIBLE_DEVICES=0, --rm --shm-size=1g --ulimit memlock=-1 --ulimit stack=67108864 -v /home/dmata/resultados:/resultados  nvidia/cuda:9.2-devel-ubuntu16.04 bash
docker attach 85e8be6c64fbceae0ddaf1c2668422f8d719a0a7812f4651c7f206f09c656be6
docker ps | grep DualSPHysics
docker images | grep DualSPHysics
docker images | grep chrono
docker attach 8925cda2c669
docker ps | grep 8925
docker images
docker run -itd --runtime=nvidia -e NVIDIA_VISIBLE_DEVICES=0, --rm --shm-size=1g --ulimit memlock=-1 --ulimit stack=67108864 -v /home/dmata/resultados:/resultados  nvidia/cuda:9.2-devel-ubuntu16.04 bash
docker attach 2a39d852cc2d8dc13d2aaed74a0757274ab7af98d094f50d6bf60dc039469e9a
docker attach 606b36ab9765
docker attach 7aeaa3fa674a
docker ps | grep chrono
docker images
nvidia/cuda                                      11.0-devel-ubuntu18.04-chrono-1                                                                                                                     8925cda2c669        2 weeks ago         15.7GB
<none>                                           <none>                                                                                                                                              006a34453d54        2 weeks ago         15.9GB
<none>                                           <none>                                                                                                                                              a75adb2d182d        2 weeks ago         2.29GB
<none>                                           <none>                                                                                                                                              29b3000c92a5        2 weeks ago         15.3GB
<none>                                           <none>                                                                                                                                              485b4c776eda        2 weeks ago         4.05GB
<none>                                           <none>                                                                                                                                              590d829b5a6a        2 weeks ago         15.3GB
<none>                                           <none>                                                                                                                                              7aeaa3fa674a        2 weeks ago         15.3GB
<none>                                           <none>                                                                                                                                              606b36ab9765        3 weeks ago         15.2GB
docker images
id
history | grep commit
docker images | grep devel-ubuntu18.04-chrono-1
exit
docker run -itd --runtime=nvidia -e NVIDIA_VISIBLE_DEVICES=0 --rm --shm-size=1g --ulimit memlock=-1 --ulimit stack=67108864 -v /home/dmata/resultados:/resultados nvidia/cuda:11.0-devel-ubuntu18.04-chrono-1 bash
docker attach 00fd8e219cab63fb91facd513753ade43f794470704fddf0c16224d48e90a4e8
ls
cd resultados
ls
docker run -itd --runtime=nvidia -e NVIDIA_VISIBLE_DEVICES=0 --rm --shm-size=1g --ulimit memlock=-1 --ulimit stack=67108864 -v /home/dmata/resultados:/resultados nvidia/cuda:11.0-devel-ubuntu18.04-chrono-1 bash
docker attach c15489114f8aa9cf75f9b8b25db38b3db114a3f63b079b0942415dceaa4e3215
ls
cd CaseDambreakVal2D_out
ls
docker run -itd --runtime=nvidia -e NVIDIA_VISIBLE_DEVICES=0 --rm --shm-size=1g --ulimit memlock=-1 --ulimit stack=67108864 -v /home/dmata/resultados:/resultados nvidia/cuda:11.0-devel-ubuntu18.04-chrono-1 bash
docker attach d54d756cffb9dc29256366f5e5ba329e0b459c342b2bc4727b3f358a30885865
nvidia-smi
docker run -itd --runtime=nvidia -e NVIDIA_VISIBLE_DEVICES=0,3,4 --rm --shm-size=1g --ulimit memlock=-1 --ulimit stack=67108864 -v /home/dmata/resultados:/resultados nvidia/cuda:11.0-devel-ubuntu18.04-chrono-1 bash
docker attach e27f28a9363bd6a84fab01ab1b6414ef9675f1f771e13122e00959fb50230583
docker ps | grep chrono
docker attach d54d756cffb9
docker commit d54d756cffb9 teste
docker images
docker run -itd --runtime=nvidia -e NVIDIA_VISIBLE_DEVICES=0,3,4 --rm --shm-size=1g --ulimit memlock=-1 --ulimit stack=67108864 -v /home/dmata/resultados:/resultados teste
docker attach c9cd5ec402bd6f1272c0f12710bb5e0985ac4eefc1e2bea76cffbe35c6cd102f
docker ps | grep chrono
docker attach d54d756cffb9
nvidia-smi
docker run -itd --runtime=nvidia -e NVIDIA_VISIBLE_DEVICES=0,3,4 --rm --shm-size=1g --ulimit memlock=-1 --ulimit stack=67108864 -v /home/dmata/resultados:/resultados teste
docker attach 0756ff37f735a8c7cc9da9bb83ef2fb882b26aa5b9735462d9feb5f780f4c05a
nvidia-smi
docker run -itd --runtime=nvidia -e NVIDIA_VISIBLE_DEVICES=5 --rm --shm-size=1g --ulimit memlock=-1 --ulimit stack=67108864 -v /home/dmata/resultados:/resultados teste
docker attach 81144a4f73405820c7f3dbf5f5750c06cee48d11ed0149efc11dcc8cec014d06
nvidia-smi
docker run -itd --runtime=nvidia -e NVIDIA_VISIBLE_DEVICES=5 --rm --shm-size=1g --ulimit memlock=-1 --ulimit stack=67108864 -v /home/dmata/resultados:/resultados teste
docker attach 6293e9277adf244cc5a3ce2fa337b6e5297ce0e4fe6760580290513d3c81b454
nvidia-smi
docker run -itd --runtime=nvidia -e NVIDIA_VISIBLE_DEVICES=7 --rm --shm-size=1g --ulimit memlock=-1 --ulimit stack=67108864 -v /home/dmata/resultados:/resultados teste
docker attach 7ed5e1cb02822a8c85b080d60a54d7067b5693e939a1bc05ec3b027bb4251c7d
nvidia-smi
docker run -itd --runtime=nvidia -e NVIDIA_VISIBLE_DEVICES=5 --rm --shm-size=1g --ulimit memlock=-1 --ulimit stack=67108864 -v /home/dmata/resultados:/resultados teste
docker attach a44a22d6c9b9c6204064858b2797f69c1f7ad86b4ba6e0b6f1ec6ecf2b8e3187
docker run -itd --runtime=nvidia -e NVIDIA_VISIBLE_DEVICES=5 --rm --shm-size=1g --ulimit memlock=-1 --ulimit stack=67108864 -v /home/dmata/resultados:/resultados teste
docker attach 88ce68ea9647110f2028141f20cdb93e325e7aa6dc41b14348d3883ba85ab8c0
screen
nvidia-smi
docker screens
docker screen
screen
docker run -itd --runtime=nvidia -e NVIDIA_VISIBLE_DEVICES=0 --rm --shm-size=1g --ulimit memlock=-1 --ulimit stack=67108864 -v /home/dmata/resultados:/resultados pelamis
docker attach f327958cc39fad590623bac2ddb14924d3c66334283cea6467b113817bc8cff6
ls
cd resultados
ls
cd 04_Pelamis
ls
docker run -itd --runtime=nvidia -e NVIDIA_VISIBLE_DEVICES=0 --rm --shm-size=1g --ulimit memlock=-1 --ulimit stack=67108864 -v /home/dmata/resultados:/resultados pelamis
8ffddc37dba091a5ba8e3b604eba801f72f32ad475deb670f9f414e0e969165b
docker attach 8ffddc37dba091a5ba8e3b604eba801f72f32ad475deb670f9f414e0e969165b
nvidia-smi
docker run -itd --runtime=nvidia -e NVIDIA_VISIBLE_DEVICES=0 --rm --shm-size=1g --ulimit memlock=-1 --ulimit stack=67108864 -v /home/dmata/resultados:/resultados nvidia/cuda:11.0-devel-ubuntu18.04-chrono-1 bash
docker run -itd --runtime=nvidia -e NVIDIA_VISIBLE_DEVICES=0 --rm --shm-size=1g --ulimit memlock=-1 --ulimit stack=67108864 -v /home/dmata/resultados:/resultados pelamis
docker attach d5deac5526871a43a50a9a0333d7456743ac2c197b8f2c649c99c06463c8464f
docker run -itd --runtime=nvidia -e NVIDIA_VISIBLE_DEVICES=0 --rm --shm-size=1g --ulimit memlock=-1 --ulimit stack=67108864 -v /home/dmata/resultados:/resultados pelamis
docker attach 904bc12a0e242d618e69a7c40b791389a487db1827d5bfd527760c5a7aca8b6e
docker run -itd --runtime=nvidia -e NVIDIA_VISIBLE_DEVICES=0 --rm --shm-size=1g --ulimit memlock=-1 --ulimit stack=67108864 -v /home/dmata/resultados:/resultados pelamis
docker attach e11cc9373e8fa73a4890a20274f5d38874e4cb84ad26acc9e3891fbbb11e99b7
